/*--------------------------------*- C++ -*----------------------------------*\
  =========                 |
  \\      /  F ield         | OpenFOAM: The Open Source CFD Toolbox
   \\    /   O peration     | Website:  https://openfoam.org
    \\  /    A nd           | Version:  7
     \\/     M anipulation  |
\*---------------------------------------------------------------------------*/
FoamFile
{
    version     2.0;
    format      ascii;
    class       volScalarField;
    object      T;
}
// * * * * * * * * * * * * * * * * * * * * * * * * * * * * * * * * * * * * * //

dimensions      [0 0 0 1 0 0 0];

internalField   uniform 350;

boundaryField
{
    inlet
    {
        type            fixedValue;
        value           uniform 350;
    }

    outlet
    {
        type            inletOutlet;
        inletValue      uniform 350;
        value           uniform 350;
    }

    upperWall
    {
        type            fixedValue;
        value           uniform 350;
    }

    lowerWall
    {
        type            fixedValue;
        value           uniform 350;
    }

    frontAndBack
    {
        type            empty;
    }
}
// ************************************************************************* //
